8
/gpfs1/home/osl/test/Ethane/Gaussian 16 Optimisation PBE0 (GD3BJ) Gas Phase 6-31G*/Output/Ethane.log	Energy:  -50026.6687025
C          0.76100        0.00000        0.00000
C         -0.76100       -0.00000       -0.00000
H          1.15966        0.94370        0.38770
H          1.15966       -0.80761        0.62342
H          1.15967       -0.13609       -1.01112
H         -1.15967        0.13609        1.01112
H         -1.15966        0.80761       -0.62342
H         -1.15966       -0.94370       -0.38771
